/*--------------------------------*- C++ -*----------------------------------*\
  =========                 |
  \\      /  F ield         | OpenFOAM: The Open Source CFD Toolbox
   \\    /   O peration     | Website:  https://openfoam.org
    \\  /    A nd           | Version:  8
     \\/     M anipulation  |
\*---------------------------------------------------------------------------*/
FoamFile
{
    version     2.0;
    format      ascii;
    class       dictionary;
    object      blockMeshDict;
}
// * * * * * * * * * * * * * * * * * * * * * * * * * * * * * * * * * * * * * //

convertToMeters 1;

vertices
(
    (-0.4 -4.8 -0.05)
    (0    -4.8 -0.05)
    (0     4.8 -0.05)
    (-0.4  4.8 -0.05)

    (-0.4 -4.8 0)
    (0    -4.8 0)
    (0     4.8 0)
    (-0.4  4.8 0)
);

blocks
(
    hex (0 1 2 3 4 5 6 7) (2 48 25) simpleGrading (1 1 1)
);

edges
(
);

patches
(
    wall gateSides
    (
        (0 1 5 4)
        (2 3 7 6)
    )
    patch gateFloor
    (
        (0 3 2 1)
    )
    patch gateLip
    (
        (4 5 6 7)
    )
    patch amiAB
    (
        (0 4 7 3)
    )
    patch amiBA
    (
        (1 2 6 5)
    )
);

mergePatchPairs
(
);

// ************************************************************************* //
