/*--------------------------------*- C++ -*----------------------------------*\
  =========                 |
  \\      /  F ield         | OpenFOAM: The Open Source CFD Toolbox
   \\    /   O peration     | Website:  https://openfoam.org
    \\  /    A nd           | Version:  8
     \\/     M anipulation  |
\*---------------------------------------------------------------------------*/
FoamFile
{
    version     2.0;
    format      ascii;
    class       dictionary;
    location    "system";
    object      controlDict;
}
// * * * * * * * * * * * * * * * * * * * * * * * * * * * * * * * * * * * * * //

application     interFoam;

startFrom       latestTime;

startTime       0;

stopAt          endTime;

endTime         6;

deltaT          0.00001;

writeControl    adjustableRunTime;

writeInterval   0.05;

purgeWrite      0;

writeFormat     binary;

writePrecision  12;

writeCompression off;

timeFormat      general;

timePrecision   12;

runTimeModifiable yes;

adjustTimeStep  on;

maxCo           0.9;
maxAlphaCo      0.9;

maxDeltaT       1;

libs            ("libvariableHeightFlowRateInletUniformVelocity.so");

functions
{
    yPlus1
    {
        type            yPlus;
        libs            ("libfieldFunctionObjects.so");
        writeControl    writeTime;
        writeInterval   1;
    }
   freeSurface
   {
       type            surfaces;
       functionObjectLibs
       (
           "libsampling.so"
       );
       outputControl   outputTime;
       outputInterval  1;
       surfaceFormat  vtk;
       fields
       (
           alpha.water
       );
       surfaces
       (
           freeSurface
           {
               type        isoSurfaceCell;
               isoField    alpha.water;
               isoValue    0.5;
               interpolate false;
               regularise  false;
           }
       );
       interpolationScheme cell;
   }
}

// ************************************************************************* //
